REMARK  15 active torsions:
REMARK  status: ('A' for Active; 'I' for Inactive)
REMARK       I    between atoms: C2_2  and  N1_3 
REMARK    1  A    between atoms: C3_4  and  N1_3 
REMARK    2  A    between atoms: C11_13  and  C3_4 
REMARK    3  A    between atoms: C3_4  and  C4_5 
REMARK    4  A    between atoms: C4_5  and  C5_6 
REMARK    5  A    between atoms: C8_9  and  O1_10 
REMARK       I    between atoms: C11_13  and  N2_14 
REMARK    6  A    between atoms: C12_15  and  N2_14 
REMARK    7  A    between atoms: C12_15  and  C17_23 
REMARK    8  A    between atoms: C12_15  and  C13_16 
REMARK    9  A    between atoms: C13_16  and  C14_17 
REMARK   10  A    between atoms: C14_17  and  C15_18 
REMARK   11  A    between atoms: C15_18  and  N3_19 
REMARK       I    between atoms: C16_20  and  N3_19 
REMARK       I    between atoms: C16_20  and  N4_21 
REMARK       I    between atoms: C17_23  and  N6_24 
REMARK   12  A    between atoms: C18_25  and  N6_24 
REMARK   13  A    between atoms: C18_25  and  C26_33 
REMARK   14  A    between atoms: C18_25  and  C19_26 
REMARK   15  A    between atoms: C19_26  and  C20_27 
REMARK       I    between atoms: C26_33  and  N7_34 
ROOT
HETATM    1  C12 DTP     1     -78.673  20.410 -42.075  1.00  0.00     0.176 C 
ENDROOT
BRANCH   1   2
HETATM    2  N2  DTP     1     -79.746  19.755 -42.805  1.00  0.00    -0.346 N 
HETATM    3  C11 DTP     1     -81.002  19.706 -42.220  1.00  0.00     0.241 C 
HETATM    4  O4  DTP     1     -81.175  20.103 -41.064  1.00  0.00    -0.271 OA
HETATM    5  H3  DTP     1     -79.722  19.759 -43.820  1.00  0.00     0.163 HD
BRANCH   3   6
HETATM    6  C3  DTP     1     -82.169  19.241 -43.124  1.00  0.00     0.180 C 
BRANCH   6   7
HETATM    7  C4  DTP     1     -83.121  20.417 -43.414  1.00  0.00     0.073 C 
BRANCH   7   8
HETATM    8  C5  DTP     1     -83.924  20.920 -42.235  1.00  0.00    -0.056 A 
HETATM    9  C10 DTP     1     -83.853  22.271 -41.863  1.00  0.00     0.010 A 
HETATM   10  C9  DTP     1     -84.595  22.748 -40.781  1.00  0.00     0.037 A 
HETATM   11  C8  DTP     1     -85.412  21.878 -40.071  1.00  0.00     0.065 A 
HETATM   12  C7  DTP     1     -85.511  20.539 -40.433  1.00  0.00     0.037 A 
HETATM   13  C6  DTP     1     -84.772  20.063 -41.518  1.00  0.00     0.010 A 
BRANCH  11  14
HETATM   14  O1  DTP     1     -86.111  22.382 -39.015  1.00  0.00    -0.361 OA
HETATM   15  H2  DTP     1     -86.638  21.666 -38.624  1.00  0.00     0.217 HD
ENDBRANCH  11  14
ENDBRANCH   7   8
ENDBRANCH   6   7
BRANCH   6  16
HETATM   16  N1  DTP     1     -81.693  18.674 -44.391  1.00  0.00    -0.348 N 
HETATM   17  C2  DTP     1     -81.305  17.361 -44.483  1.00  0.00     0.214 C 
HETATM   18  C1  DTP     1     -80.827  16.948 -45.848  1.00  0.00     0.117 C 
HETATM   19  O5  DTP     1     -81.324  16.582 -43.536  1.00  0.00    -0.274 OA
HETATM   20  H1  DTP     1     -81.508  19.312 -45.169  1.00  0.00     0.163 HD
ENDBRANCH   6  16
ENDBRANCH   3   6
ENDBRANCH   1   2
BRANCH   1  21
HETATM   21  C17 DTP     1     -78.988  21.917 -42.062  1.00  0.00     0.241 C 
HETATM   22  O3  DTP     1     -79.355  22.517 -43.075  1.00  0.00    -0.271 OA
HETATM   23  N6  DTP     1     -78.852  22.511 -40.831  1.00  0.00    -0.346 N 
HETATM   24  H8  DTP     1     -78.773  21.916 -40.013  1.00  0.00     0.163 HD
BRANCH  23  25
HETATM   25  C18 DTP     1     -79.310  23.880 -40.589  1.00  0.00     0.180 C 
BRANCH  25  26
HETATM   26  C26 DTP     1     -80.526  23.880 -39.640  1.00  0.00     0.238 C 
HETATM   27  N7  DTP     1     -81.219  22.706 -39.530  1.00  0.00    -0.368 N 
HETATM   28  H10 DTP     1     -82.100  22.736 -39.030  1.00  0.00     0.159 HD
HETATM   29  H9  DTP     1     -81.134  21.951 -40.209  1.00  0.00     0.159 HD
HETATM   30  O2  DTP     1     -80.918  24.884 -39.050  1.00  0.00    -0.271 OA
ENDBRANCH  25  26
BRANCH  25  31
HETATM   31  C19 DTP     1     -78.187  24.755 -40.007  1.00  0.00     0.073 C 
BRANCH  31  32
HETATM   32  C20 DTP     1     -76.936  24.762 -40.860  1.00  0.00    -0.056 A 
HETATM   33  C21 DTP     1     -76.944  25.338 -42.138  1.00  0.00     0.007 A 
HETATM   34  C22 DTP     1     -75.797  25.314 -42.933  1.00  0.00     0.001 A 
HETATM   35  C23 DTP     1     -74.630  24.719 -42.458  1.00  0.00     0.000 A 
HETATM   36  C24 DTP     1     -74.608  24.149 -41.187  1.00  0.00     0.001 A 
HETATM   37  C25 DTP     1     -75.754  24.171 -40.390  1.00  0.00     0.007 A 
ENDBRANCH  31  32
ENDBRANCH  25  31
ENDBRANCH  23  25
ENDBRANCH   1  21
BRANCH   1  38
HETATM   38  C13 DTP     1     -77.263  20.093 -42.586  1.00  0.00     0.036 C 
BRANCH  38  39
HETATM   39  C14 DTP     1     -76.730  20.850 -43.814  1.00  0.00     0.022 C 
BRANCH  39  40
HETATM   40  C15 DTP     1     -77.357  20.454 -45.149  1.00  0.00     0.122 C 
BRANCH  40  41
HETATM   41  N3  DTP     1     -78.661  21.055 -45.319  1.00  0.00    -0.366 N 
HETATM   42  C16 DTP     1     -79.630  20.652 -46.157  1.00  0.00     0.165 C 
HETATM   43  N4  DTP     1     -79.307  19.739 -47.086  1.00  0.00    -0.273 NA
HETATM   44  N5  DTP     1     -80.848  21.044 -46.048  1.00  0.00    -0.274 NA
HETATM   45  H5  DTP     1     -78.441  19.953 -47.564  1.00  0.00     0.127 HD
HETATM   46  H6  DTP     1     -80.061  19.653 -47.761  1.00  0.00     0.127 HD
HETATM   47  H7  DTP     1     -80.881  21.761 -45.312  1.00  0.00     0.189 HD
HETATM   48  H4  DTP     1     -78.886  21.816 -44.670  1.00  0.00     0.162 HD
ENDBRANCH  40  41
ENDBRANCH  39  40
ENDBRANCH  38  39
ENDBRANCH   1  38
TORSDOF 15
