MODEL 1
REMARK VINA RESULT:      -6.7      0.000      0.000
REMARK  15 active torsions:
REMARK  status: ('A' for Active; 'I' for Inactive)
REMARK       I    between atoms: C2_2  and  N1_3 
REMARK    1  A    between atoms: C3_4  and  N1_3 
REMARK    2  A    between atoms: C11_13  and  C3_4 
REMARK    3  A    between atoms: C3_4  and  C4_5 
REMARK    4  A    between atoms: C4_5  and  C5_6 
REMARK    5  A    between atoms: C8_9  and  O1_10 
REMARK       I    between atoms: C11_13  and  N2_14 
REMARK    6  A    between atoms: C12_15  and  N2_14 
REMARK    7  A    between atoms: C12_15  and  C17_23 
REMARK    8  A    between atoms: C12_15  and  C13_16 
REMARK    9  A    between atoms: C13_16  and  C14_17 
REMARK   10  A    between atoms: C14_17  and  C15_18 
REMARK   11  A    between atoms: C15_18  and  N3_19 
REMARK       I    between atoms: C16_20  and  N3_19 
REMARK       I    between atoms: C16_20  and  N4_21 
REMARK       I    between atoms: C17_23  and  N6_24 
REMARK   12  A    between atoms: C18_25  and  N6_24 
REMARK   13  A    between atoms: C18_25  and  C26_33 
REMARK   14  A    between atoms: C18_25  and  C19_26 
REMARK   15  A    between atoms: C19_26  and  C20_27 
REMARK       I    between atoms: C26_33  and  N7_34 
ROOT
HETATM    1  C12 DTP     1     -13.289  16.898  -0.395  1.00  0.00     0.176 C 
ENDROOT
BRANCH   1   2
HETATM    2  N2  DTP     1     -13.992  17.327   0.803  1.00  0.00    -0.346 N 
HETATM    3  C11 DTP     1     -15.378  17.358   0.773  1.00  0.00     0.241 C 
HETATM    4  O4  DTP     1     -15.991  17.141  -0.276  1.00  0.00    -0.271 OA
HETATM    5  H3  DTP     1     -13.564  17.159   1.708  1.00  0.00     0.163 HD
BRANCH   3   6
HETATM    6  C3  DTP     1     -16.094  17.562   2.130  1.00  0.00     0.180 C 
BRANCH   6   7
HETATM    7  C4  DTP     1     -15.103  18.092   3.183  1.00  0.00     0.073 C 
BRANCH   7   8
HETATM    8  C5  DTP     1     -14.929  17.231   4.415  1.00  0.00    -0.056 A 
HETATM    9  C10 DTP     1     -13.989  16.190   4.416  1.00  0.00     0.010 A 
HETATM   10  C9  DTP     1     -13.815  15.393   5.549  1.00  0.00     0.037 A 
HETATM   11  C8  DTP     1     -14.576  15.638   6.684  1.00  0.00     0.065 A 
HETATM   12  C7  DTP     1     -15.501  16.675   6.711  1.00  0.00     0.037 A 
HETATM   13  C6  DTP     1     -15.672  17.475   5.579  1.00  0.00     0.010 A 
BRANCH  11  14
HETATM   14  O1  DTP     1     -14.383  14.830   7.765  1.00  0.00    -0.361 OA
HETATM   15  H2  DTP     1     -14.673  13.932   7.535  1.00  0.00     0.217 HD
ENDBRANCH  11  14
ENDBRANCH   7   8
ENDBRANCH   6   7
BRANCH   6  16
HETATM   16  N1  DTP     1     -17.229  18.486   2.020  1.00  0.00    -0.348 N 
HETATM   17  C2  DTP     1     -18.377  18.294   2.748  1.00  0.00     0.214 C 
HETATM   18  C1  DTP     1     -19.448  19.322   2.502  1.00  0.00     0.117 C 
HETATM   19  O5  DTP     1     -18.538  17.359   3.524  1.00  0.00    -0.274 OA
HETATM   20  H1  DTP     1     -17.213  19.189   1.277  1.00  0.00     0.163 HD
ENDBRANCH   6  16
ENDBRANCH   3   6
ENDBRANCH   1   2
BRANCH   1  21
HETATM   21  C17 DTP     1     -12.999  15.395  -0.237  1.00  0.00     0.241 C 
HETATM   22  O3  DTP     1     -12.889  14.644  -1.210  1.00  0.00    -0.271 OA
HETATM   23  N6  DTP     1     -12.848  14.983   1.064  1.00  0.00    -0.346 N 
HETATM   24  H8  DTP     1     -12.724  15.688   1.783  1.00  0.00     0.163 HD
BRANCH  23  25
HETATM   25  C18 DTP     1     -12.363  13.641   1.389  1.00  0.00     0.180 C 
BRANCH  25  26
HETATM   26  C26 DTP     1     -11.034  13.723   2.167  1.00  0.00     0.238 C 
HETATM   27  N7  DTP     1     -10.716  12.651   2.955  1.00  0.00    -0.368 N 
HETATM   28  H10 DTP     1      -9.926  12.758   3.581  1.00  0.00     0.159 HD
HETATM   29  H9  DTP     1     -11.404  11.957   3.244  1.00  0.00     0.159 HD
HETATM   30  O2  DTP     1     -10.307  14.713   2.152  1.00  0.00    -0.271 OA
ENDBRANCH  25  26
BRANCH  25  31
HETATM   31  C19 DTP     1     -13.401  12.849   2.202  1.00  0.00     0.073 C 
BRANCH  31  32
HETATM   32  C20 DTP     1     -14.809  12.984   1.662  1.00  0.00    -0.056 A 
HETATM   33  C21 DTP     1     -15.744  13.812   2.299  1.00  0.00     0.007 A 
HETATM   34  C22 DTP     1     -17.050  13.909   1.816  1.00  0.00     0.001 A 
HETATM   35  C23 DTP     1     -17.433  13.185   0.689  1.00  0.00     0.000 A 
HETATM   36  C24 DTP     1     -16.511  12.364   0.043  1.00  0.00     0.001 A 
HETATM   37  C25 DTP     1     -15.205  12.265   0.525  1.00  0.00     0.007 A 
ENDBRANCH  31  32
ENDBRANCH  25  31
ENDBRANCH  23  25
ENDBRANCH   1  21
BRANCH   1  38
HETATM   38  C13 DTP     1     -12.040  17.721  -0.735  1.00  0.00     0.036 C 
BRANCH  38  39
HETATM   39  C14 DTP     1     -12.172  18.906  -1.706  1.00  0.00     0.022 C 
BRANCH  39  40
HETATM   40  C15 DTP     1     -13.541  19.061  -2.365  1.00  0.00     0.122 C 
BRANCH  40  41
HETATM   41  N3  DTP     1     -13.508  20.043  -3.426  1.00  0.00    -0.366 N 
HETATM   42  C16 DTP     1     -13.788  19.837  -4.723  1.00  0.00     0.165 C 
HETATM   43  N4  DTP     1     -13.907  18.567  -5.138  1.00  0.00    -0.273 NA
HETATM   44  N5  DTP     1     -14.021  20.798  -5.543  1.00  0.00    -0.274 NA
HETATM   45  H5  DTP     1     -13.162  17.971  -4.799  1.00  0.00     0.127 HD
HETATM   46  H6  DTP     1     -13.938  18.537  -6.153  1.00  0.00     0.127 HD
HETATM   47  H7  DTP     1     -13.843  21.681  -5.048  1.00  0.00     0.189 HD
HETATM   48  H4  DTP     1     -13.329  21.009  -3.130  1.00  0.00     0.162 HD
ENDBRANCH  40  41
ENDBRANCH  39  40
ENDBRANCH  38  39
ENDBRANCH   1  38
TORSDOF 15
ENDMDL
MODEL 2
REMARK VINA RESULT:      -6.6      2.699      7.132
REMARK  15 active torsions:
REMARK  status: ('A' for Active; 'I' for Inactive)
REMARK       I    between atoms: C2_2  and  N1_3 
REMARK    1  A    between atoms: C3_4  and  N1_3 
REMARK    2  A    between atoms: C11_13  and  C3_4 
REMARK    3  A    between atoms: C3_4  and  C4_5 
REMARK    4  A    between atoms: C4_5  and  C5_6 
REMARK    5  A    between atoms: C8_9  and  O1_10 
REMARK       I    between atoms: C11_13  and  N2_14 
REMARK    6  A    between atoms: C12_15  and  N2_14 
REMARK    7  A    between atoms: C12_15  and  C17_23 
REMARK    8  A    between atoms: C12_15  and  C13_16 
REMARK    9  A    between atoms: C13_16  and  C14_17 
REMARK   10  A    between atoms: C14_17  and  C15_18 
REMARK   11  A    between atoms: C15_18  and  N3_19 
REMARK       I    between atoms: C16_20  and  N3_19 
REMARK       I    between atoms: C16_20  and  N4_21 
REMARK       I    between atoms: C17_23  and  N6_24 
REMARK   12  A    between atoms: C18_25  and  N6_24 
REMARK   13  A    between atoms: C18_25  and  C26_33 
REMARK   14  A    between atoms: C18_25  and  C19_26 
REMARK   15  A    between atoms: C19_26  and  C20_27 
REMARK       I    between atoms: C26_33  and  N7_34 
ROOT
HETATM    1  C12 DTP     1     -16.478  15.658   2.091  1.00  0.00     0.176 C 
ENDROOT
BRANCH   1   2
HETATM    2  N2  DTP     1     -15.576  15.922   0.982  1.00  0.00    -0.346 N 
HETATM    3  C11 DTP     1     -15.634  17.166   0.372  1.00  0.00     0.241 C 
HETATM    4  O4  DTP     1     -16.505  17.983   0.686  1.00  0.00    -0.271 OA
HETATM    5  H3  DTP     1     -14.678  15.450   0.957  1.00  0.00     0.163 HD
BRANCH   3   6
HETATM    6  C3  DTP     1     -14.495  17.504  -0.620  1.00  0.00     0.180 C 
BRANCH   6   7
HETATM    7  C4  DTP     1     -14.192  19.014  -0.591  1.00  0.00     0.073 C 
BRANCH   7   8
HETATM    8  C5  DTP     1     -14.232  19.720  -1.928  1.00  0.00    -0.056 A 
HETATM    9  C10 DTP     1     -14.730  21.028  -2.016  1.00  0.00     0.010 A 
HETATM   10  C9  DTP     1     -14.766  21.692  -3.244  1.00  0.00     0.037 A 
HETATM   11  C8  DTP     1     -14.301  21.052  -4.385  1.00  0.00     0.065 A 
HETATM   12  C7  DTP     1     -13.787  19.761  -4.318  1.00  0.00     0.037 A 
HETATM   13  C6  DTP     1     -13.747  19.099  -3.089  1.00  0.00     0.010 A 
BRANCH  11  14
HETATM   14  O1  DTP     1     -14.363  21.731  -5.565  1.00  0.00    -0.361 OA
HETATM   15  H2  DTP     1     -13.517  21.623  -6.028  1.00  0.00     0.217 HD
ENDBRANCH  11  14
ENDBRANCH   7   8
ENDBRANCH   6   7
BRANCH   6  16
HETATM   16  N1  DTP     1     -13.269  16.753  -0.328  1.00  0.00    -0.348 N 
HETATM   17  C2  DTP     1     -13.025  15.533  -0.907  1.00  0.00     0.214 C 
HETATM   18  C1  DTP     1     -11.732  14.892  -0.485  1.00  0.00     0.117 C 
HETATM   19  O5  DTP     1     -13.797  14.990  -1.690  1.00  0.00    -0.274 OA
HETATM   20  H1  DTP     1     -12.668  17.082   0.432  1.00  0.00     0.163 HD
ENDBRANCH   6  16
ENDBRANCH   3   6
ENDBRANCH   1   2
BRANCH   1  21
HETATM   21  C17 DTP     1     -15.624  15.110   3.249  1.00  0.00     0.241 C 
HETATM   22  O3  DTP     1     -16.073  14.982   4.390  1.00  0.00    -0.271 OA
HETATM   23  N6  DTP     1     -14.346  14.756   2.888  1.00  0.00    -0.346 N 
HETATM   24  H8  DTP     1     -14.128  14.674   1.901  1.00  0.00     0.163 HD
BRANCH  23  25
HETATM   25  C18 DTP     1     -13.469  14.025   3.804  1.00  0.00     0.180 C 
BRANCH  25  26
HETATM   26  C26 DTP     1     -12.712  12.913   3.050  1.00  0.00     0.238 C 
HETATM   27  N7  DTP     1     -11.426  12.668   3.447  1.00  0.00    -0.368 N 
HETATM   28  H10 DTP     1     -10.874  12.049   2.865  1.00  0.00     0.159 HD
HETATM   29  H9  DTP     1     -10.887  13.328   4.006  1.00  0.00     0.159 HD
HETATM   30  O2  DTP     1     -13.187  12.305   2.094  1.00  0.00    -0.271 OA
ENDBRANCH  25  26
BRANCH  25  31
HETATM   31  C19 DTP     1     -12.470  14.966   4.499  1.00  0.00     0.073 C 
BRANCH  31  32
HETATM   32  C20 DTP     1     -12.120  16.181   3.665  1.00  0.00    -0.056 A 
HETATM   33  C21 DTP     1     -12.941  17.317   3.676  1.00  0.00     0.007 A 
HETATM   34  C22 DTP     1     -12.631  18.422   2.882  1.00  0.00     0.001 A 
HETATM   35  C23 DTP     1     -11.496  18.406   2.074  1.00  0.00     0.000 A 
HETATM   36  C24 DTP     1     -10.669  17.285   2.060  1.00  0.00     0.001 A 
HETATM   37  C25 DTP     1     -10.977  16.177   2.853  1.00  0.00     0.007 A 
ENDBRANCH  31  32
ENDBRANCH  25  31
ENDBRANCH  23  25
ENDBRANCH   1  21
BRANCH   1  38
HETATM   38  C13 DTP     1     -17.674  14.763   1.747  1.00  0.00     0.036 C 
BRANCH  38  39
HETATM   39  C14 DTP     1     -17.485  13.237   1.753  1.00  0.00     0.022 C 
BRANCH  39  40
HETATM   40  C15 DTP     1     -17.296  12.596   0.380  1.00  0.00     0.122 C 
BRANCH  40  41
HETATM   41  N3  DTP     1     -15.967  12.045   0.233  1.00  0.00    -0.366 N 
HETATM   42  C16 DTP     1     -15.132  12.225  -0.803  1.00  0.00     0.165 C 
HETATM   43  N4  DTP     1     -15.632  12.789  -1.913  1.00  0.00    -0.273 NA
HETATM   44  N5  DTP     1     -13.878  11.953  -0.737  1.00  0.00    -0.274 NA
HETATM   45  H5  DTP     1     -16.519  12.391  -2.191  1.00  0.00     0.127 HD
HETATM   46  H6  DTP     1     -14.963  12.706  -2.673  1.00  0.00     0.127 HD
HETATM   47  H7  DTP     1     -13.703  11.500   0.169  1.00  0.00     0.189 HD
HETATM   48  H4  DTP     1     -15.607  11.533   1.045  1.00  0.00     0.162 HD
ENDBRANCH  40  41
ENDBRANCH  39  40
ENDBRANCH  38  39
ENDBRANCH   1  38
TORSDOF 15
ENDMDL
MODEL 3
REMARK VINA RESULT:      -6.5      2.686      7.410
REMARK  15 active torsions:
REMARK  status: ('A' for Active; 'I' for Inactive)
REMARK       I    between atoms: C2_2  and  N1_3 
REMARK    1  A    between atoms: C3_4  and  N1_3 
REMARK    2  A    between atoms: C11_13  and  C3_4 
REMARK    3  A    between atoms: C3_4  and  C4_5 
REMARK    4  A    between atoms: C4_5  and  C5_6 
REMARK    5  A    between atoms: C8_9  and  O1_10 
REMARK       I    between atoms: C11_13  and  N2_14 
REMARK    6  A    between atoms: C12_15  and  N2_14 
REMARK    7  A    between atoms: C12_15  and  C17_23 
REMARK    8  A    between atoms: C12_15  and  C13_16 
REMARK    9  A    between atoms: C13_16  and  C14_17 
REMARK   10  A    between atoms: C14_17  and  C15_18 
REMARK   11  A    between atoms: C15_18  and  N3_19 
REMARK       I    between atoms: C16_20  and  N3_19 
REMARK       I    between atoms: C16_20  and  N4_21 
REMARK       I    between atoms: C17_23  and  N6_24 
REMARK   12  A    between atoms: C18_25  and  N6_24 
REMARK   13  A    between atoms: C18_25  and  C26_33 
REMARK   14  A    between atoms: C18_25  and  C19_26 
REMARK   15  A    between atoms: C19_26  and  C20_27 
REMARK       I    between atoms: C26_33  and  N7_34 
ROOT
HETATM    1  C12 DTP     1     -14.327  16.841   3.092  1.00  0.00     0.176 C 
ENDROOT
BRANCH   1   2
HETATM    2  N2  DTP     1     -13.324  15.818   3.339  1.00  0.00    -0.346 N 
HETATM    3  C11 DTP     1     -13.752  14.514   3.534  1.00  0.00     0.241 C 
HETATM    4  O4  DTP     1     -14.956  14.250   3.612  1.00  0.00    -0.271 OA
HETATM    5  H3  DTP     1     -12.398  15.932   2.939  1.00  0.00     0.163 HD
BRANCH   3   6
HETATM    6  C3  DTP     1     -12.659  13.418   3.532  1.00  0.00     0.180 C 
BRANCH   6   7
HETATM    7  C4  DTP     1     -12.077  13.247   2.116  1.00  0.00     0.073 C 
BRANCH   7   8
HETATM    8  C5  DTP     1     -13.088  13.090   1.003  1.00  0.00    -0.056 A 
HETATM    9  C10 DTP     1     -13.176  14.059  -0.008  1.00  0.00     0.010 A 
HETATM   10  C9  DTP     1     -14.101  13.921  -1.044  1.00  0.00     0.037 A 
HETATM   11  C8  DTP     1     -14.938  12.814  -1.075  1.00  0.00     0.065 A 
HETATM   12  C7  DTP     1     -14.857  11.832  -0.093  1.00  0.00     0.037 A 
HETATM   13  C6  DTP     1     -13.928  11.968   0.941  1.00  0.00     0.010 A 
BRANCH  11  14
HETATM   14  O1  DTP     1     -15.834  12.723  -2.098  1.00  0.00    -0.361 OA
HETATM   15  H2  DTP     1     -15.418  13.069  -2.904  1.00  0.00     0.217 HD
ENDBRANCH  11  14
ENDBRANCH   7   8
ENDBRANCH   6   7
BRANCH   6  16
HETATM   16  N1  DTP     1     -11.574  13.720   4.473  1.00  0.00    -0.348 N 
HETATM   17  C2  DTP     1     -11.755  13.609   5.829  1.00  0.00     0.214 C 
HETATM   18  C1  DTP     1     -10.549  13.974   6.650  1.00  0.00     0.117 C 
HETATM   19  O5  DTP     1     -12.812  13.259   6.344  1.00  0.00    -0.274 OA
HETATM   20  H1  DTP     1     -10.727  14.165   4.111  1.00  0.00     0.163 HD
ENDBRANCH   6  16
ENDBRANCH   3   6
ENDBRANCH   1   2
BRANCH   1  21
HETATM   21  C17 DTP     1     -13.717  17.841   2.093  1.00  0.00     0.241 C 
HETATM   22  O3  DTP     1     -12.993  18.770   2.458  1.00  0.00    -0.271 OA
HETATM   23  N6  DTP     1     -14.027  17.586   0.780  1.00  0.00    -0.346 N 
HETATM   24  H8  DTP     1     -14.429  16.685   0.544  1.00  0.00     0.163 HD
BRANCH  23  25
HETATM   25  C18 DTP     1     -13.368  18.302  -0.313  1.00  0.00     0.180 C 
BRANCH  25  26
HETATM   26  C26 DTP     1     -11.904  17.838  -0.454  1.00  0.00     0.238 C 
HETATM   27  N7  DTP     1     -10.941  18.688   0.017  1.00  0.00    -0.368 N 
HETATM   28  H10 DTP     1      -9.978  18.462  -0.204  1.00  0.00     0.159 HD
HETATM   29  H9  DTP     1     -11.121  19.673   0.204  1.00  0.00     0.159 HD
HETATM   30  O2  DTP     1     -11.581  16.794  -1.016  1.00  0.00    -0.271 OA
ENDBRANCH  25  26
BRANCH  25  31
HETATM   31  C19 DTP     1     -14.113  18.108  -1.645  1.00  0.00     0.073 C 
BRANCH  31  32
HETATM   32  C20 DTP     1     -14.250  19.388  -2.442  1.00  0.00    -0.056 A 
HETATM   33  C21 DTP     1     -14.831  20.529  -1.870  1.00  0.00     0.007 A 
HETATM   34  C22 DTP     1     -14.984  21.697  -2.619  1.00  0.00     0.001 A 
HETATM   35  C23 DTP     1     -14.554  21.739  -3.944  1.00  0.00     0.000 A 
HETATM   36  C24 DTP     1     -13.970  20.614  -4.521  1.00  0.00     0.001 A 
HETATM   37  C25 DTP     1     -13.816  19.444  -3.774  1.00  0.00     0.007 A 
ENDBRANCH  31  32
ENDBRANCH  25  31
ENDBRANCH  23  25
ENDBRANCH   1  21
BRANCH   1  38
HETATM   38  C13 DTP     1     -14.883  17.511   4.354  1.00  0.00     0.036 C 
BRANCH  38  39
HETATM   39  C14 DTP     1     -16.385  17.834   4.423  1.00  0.00     0.022 C 
BRANCH  39  40
HETATM   40  C15 DTP     1     -17.244  17.183   3.341  1.00  0.00     0.122 C 
BRANCH  40  41
HETATM   41  N3  DTP     1     -17.778  15.914   3.783  1.00  0.00    -0.366 N 
HETATM   42  C16 DTP     1     -17.853  14.779   3.068  1.00  0.00     0.165 C 
HETATM   43  N4  DTP     1     -17.613  14.859   1.750  1.00  0.00    -0.273 NA
HETATM   44  N5  DTP     1     -18.064  13.633   3.607  1.00  0.00    -0.274 NA
HETATM   45  H5  DTP     1     -18.094  15.632   1.308  1.00  0.00     0.127 HD
HETATM   46  H6  DTP     1     -17.874  13.987   1.299  1.00  0.00     0.127 HD
HETATM   47  H7  DTP     1     -18.260  13.788   4.605  1.00  0.00     0.189 HD
HETATM   48  H4  DTP     1     -18.049  15.867   4.771  1.00  0.00     0.162 HD
ENDBRANCH  40  41
ENDBRANCH  39  40
ENDBRANCH  38  39
ENDBRANCH   1  38
TORSDOF 15
ENDMDL
MODEL 4
REMARK VINA RESULT:      -6.5     25.621     29.059
REMARK  15 active torsions:
REMARK  status: ('A' for Active; 'I' for Inactive)
REMARK       I    between atoms: C2_2  and  N1_3 
REMARK    1  A    between atoms: C3_4  and  N1_3 
REMARK    2  A    between atoms: C11_13  and  C3_4 
REMARK    3  A    between atoms: C3_4  and  C4_5 
REMARK    4  A    between atoms: C4_5  and  C5_6 
REMARK    5  A    between atoms: C8_9  and  O1_10 
REMARK       I    between atoms: C11_13  and  N2_14 
REMARK    6  A    between atoms: C12_15  and  N2_14 
REMARK    7  A    between atoms: C12_15  and  C17_23 
REMARK    8  A    between atoms: C12_15  and  C13_16 
REMARK    9  A    between atoms: C13_16  and  C14_17 
REMARK   10  A    between atoms: C14_17  and  C15_18 
REMARK   11  A    between atoms: C15_18  and  N3_19 
REMARK       I    between atoms: C16_20  and  N3_19 
REMARK       I    between atoms: C16_20  and  N4_21 
REMARK       I    between atoms: C17_23  and  N6_24 
REMARK   12  A    between atoms: C18_25  and  N6_24 
REMARK   13  A    between atoms: C18_25  and  C26_33 
REMARK   14  A    between atoms: C18_25  and  C19_26 
REMARK   15  A    between atoms: C19_26  and  C20_27 
REMARK       I    between atoms: C26_33  and  N7_34 
ROOT
HETATM    1  C12 DTP     1     -40.858  14.422  -9.910  1.00  0.00     0.176 C 
ENDROOT
BRANCH   1   2
HETATM    2  N2  DTP     1     -40.386  13.800 -11.136  1.00  0.00    -0.346 N 
HETATM    3  C11 DTP     1     -39.556  14.537 -11.968  1.00  0.00     0.241 C 
HETATM    4  O4  DTP     1     -39.321  15.725 -11.732  1.00  0.00    -0.271 OA
HETATM    5  H3  DTP     1     -40.267  12.792 -11.160  1.00  0.00     0.163 HD
BRANCH   3   6
HETATM    6  C3  DTP     1     -38.867  13.764 -13.119  1.00  0.00     0.180 C 
BRANCH   6   7
HETATM    7  C4  DTP     1     -39.716  12.545 -13.526  1.00  0.00     0.073 C 
BRANCH   7   8
HETATM    8  C5  DTP     1     -40.568  12.720 -14.764  1.00  0.00    -0.056 A 
HETATM    9  C10 DTP     1     -41.764  13.450 -14.695  1.00  0.00     0.010 A 
HETATM   10  C9  DTP     1     -42.554  13.624 -15.833  1.00  0.00     0.037 A 
HETATM   11  C8  DTP     1     -42.150  13.072 -17.041  1.00  0.00     0.065 A 
HETATM   12  C7  DTP     1     -40.959  12.360 -17.137  1.00  0.00     0.037 A 
HETATM   13  C6  DTP     1     -40.167  12.190 -16.000  1.00  0.00     0.010 A 
BRANCH  11  14
HETATM   14  O1  DTP     1     -42.956  13.256 -18.125  1.00  0.00    -0.361 OA
HETATM   15  H2  DTP     1     -43.649  13.895 -17.889  1.00  0.00     0.217 HD
ENDBRANCH  11  14
ENDBRANCH   7   8
ENDBRANCH   6   7
BRANCH   6  16
HETATM   16  N1  DTP     1     -38.637  14.614 -14.293  1.00  0.00    -0.348 N 
HETATM   17  C2  DTP     1     -37.458  14.559 -14.992  1.00  0.00     0.214 C 
HETATM   18  C1  DTP     1     -37.380  15.508 -16.156  1.00  0.00     0.117 C 
HETATM   19  O5  DTP     1     -36.529  13.815 -14.695  1.00  0.00    -0.274 OA
HETATM   20  H1  DTP     1     -39.309  15.360 -14.491  1.00  0.00     0.163 HD
ENDBRANCH   6  16
ENDBRANCH   3   6
ENDBRANCH   1   2
BRANCH   1  21
HETATM   21  C17 DTP     1     -40.194  13.676  -8.739  1.00  0.00     0.241 C 
HETATM   22  O3  DTP     1     -40.854  13.152  -7.839  1.00  0.00    -0.271 OA
HETATM   23  N6  DTP     1     -38.823  13.626  -8.807  1.00  0.00    -0.346 N 
HETATM   24  H8  DTP     1     -38.372  13.874  -9.681  1.00  0.00     0.163 HD
BRANCH  23  25
HETATM   25  C18 DTP     1     -38.044  12.783  -7.898  1.00  0.00     0.180 C 
BRANCH  25  26
HETATM   26  C26 DTP     1     -38.099  11.310  -8.352  1.00  0.00     0.238 C 
HETATM   27  N7  DTP     1     -38.897  10.472  -7.623  1.00  0.00    -0.368 N 
HETATM   28  H10 DTP     1     -38.825   9.481  -7.819  1.00  0.00     0.159 HD
HETATM   29  H9  DTP     1     -39.230  10.704  -6.688  1.00  0.00     0.159 HD
HETATM   30  O2  DTP     1     -37.421  10.865  -9.276  1.00  0.00    -0.271 OA
ENDBRANCH  25  26
BRANCH  25  31
HETATM   31  C19 DTP     1     -36.582  13.253  -7.809  1.00  0.00     0.073 C 
BRANCH  31  32
HETATM   32  C20 DTP     1     -36.143  13.566  -6.394  1.00  0.00    -0.056 A 
HETATM   33  C21 DTP     1     -37.050  14.093  -5.464  1.00  0.00     0.007 A 
HETATM   34  C22 DTP     1     -36.633  14.410  -4.170  1.00  0.00     0.001 A 
HETATM   35  C23 DTP     1     -35.309  14.199  -3.791  1.00  0.00     0.000 A 
HETATM   36  C24 DTP     1     -34.401  13.670  -4.704  1.00  0.00     0.001 A 
HETATM   37  C25 DTP     1     -34.814  13.353  -5.999  1.00  0.00     0.007 A 
ENDBRANCH  31  32
ENDBRANCH  25  31
ENDBRANCH  23  25
ENDBRANCH   1  21
BRANCH   1  38
HETATM   38  C13 DTP     1     -42.383  14.511  -9.782  1.00  0.00     0.036 C 
BRANCH  38  39
HETATM   39  C14 DTP     1     -43.259  13.769 -10.805  1.00  0.00     0.022 C 
BRANCH  39  40
HETATM   40  C15 DTP     1     -43.840  12.440 -10.326  1.00  0.00     0.122 C 
BRANCH  40  41
HETATM   41  N3  DTP     1     -42.802  11.541  -9.875  1.00  0.00    -0.366 N 
HETATM   42  C16 DTP     1     -42.686  10.992  -8.655  1.00  0.00     0.165 C 
HETATM   43  N4  DTP     1     -43.476  11.471  -7.681  1.00  0.00    -0.273 NA
HETATM   44  N5  DTP     1     -41.919   9.990  -8.415  1.00  0.00    -0.274 NA
HETATM   45  H5  DTP     1     -43.497  12.483  -7.654  1.00  0.00     0.127 HD
HETATM   46  H6  DTP     1     -43.172  11.109  -6.782  1.00  0.00     0.127 HD
HETATM   47  H7  DTP     1     -41.378   9.800  -9.268  1.00  0.00     0.189 HD
HETATM   48  H4  DTP     1     -42.137  11.236 -10.593  1.00  0.00     0.162 HD
ENDBRANCH  40  41
ENDBRANCH  39  40
ENDBRANCH  38  39
ENDBRANCH   1  38
TORSDOF 15
ENDMDL
MODEL 5
REMARK VINA RESULT:      -6.5      2.637      7.066
REMARK  15 active torsions:
REMARK  status: ('A' for Active; 'I' for Inactive)
REMARK       I    between atoms: C2_2  and  N1_3 
REMARK    1  A    between atoms: C3_4  and  N1_3 
REMARK    2  A    between atoms: C11_13  and  C3_4 
REMARK    3  A    between atoms: C3_4  and  C4_5 
REMARK    4  A    between atoms: C4_5  and  C5_6 
REMARK    5  A    between atoms: C8_9  and  O1_10 
REMARK       I    between atoms: C11_13  and  N2_14 
REMARK    6  A    between atoms: C12_15  and  N2_14 
REMARK    7  A    between atoms: C12_15  and  C17_23 
REMARK    8  A    between atoms: C12_15  and  C13_16 
REMARK    9  A    between atoms: C13_16  and  C14_17 
REMARK   10  A    between atoms: C14_17  and  C15_18 
REMARK   11  A    between atoms: C15_18  and  N3_19 
REMARK       I    between atoms: C16_20  and  N3_19 
REMARK       I    between atoms: C16_20  and  N4_21 
REMARK       I    between atoms: C17_23  and  N6_24 
REMARK   12  A    between atoms: C18_25  and  N6_24 
REMARK   13  A    between atoms: C18_25  and  C26_33 
REMARK   14  A    between atoms: C18_25  and  C19_26 
REMARK   15  A    between atoms: C19_26  and  C20_27 
REMARK       I    between atoms: C26_33  and  N7_34 
ROOT
HETATM    1  C12 DTP     1     -16.243  15.340   1.500  1.00  0.00     0.176 C 
ENDROOT
BRANCH   1   2
HETATM    2  N2  DTP     1     -15.129  15.757   0.665  1.00  0.00    -0.346 N 
HETATM    3  C11 DTP     1     -15.245  16.947  -0.037  1.00  0.00     0.241 C 
HETATM    4  O4  DTP     1     -16.309  17.574  -0.044  1.00  0.00    -0.271 OA
HETATM    5  H3  DTP     1     -14.188  15.480   0.928  1.00  0.00     0.163 HD
BRANCH   3   6
HETATM    6  C3  DTP     1     -13.956  17.489  -0.700  1.00  0.00     0.180 C 
BRANCH   6   7
HETATM    7  C4  DTP     1     -14.158  18.950  -1.145  1.00  0.00     0.073 C 
BRANCH   7   8
HETATM    8  C5  DTP     1     -13.521  19.331  -2.463  1.00  0.00    -0.056 A 
HETATM    9  C10 DTP     1     -12.255  19.934  -2.483  1.00  0.00     0.010 A 
HETATM   10  C9  DTP     1     -11.654  20.283  -3.694  1.00  0.00     0.037 A 
HETATM   11  C8  DTP     1     -12.316  20.027  -4.888  1.00  0.00     0.065 A 
HETATM   12  C7  DTP     1     -13.564  19.414  -4.893  1.00  0.00     0.037 A 
HETATM   13  C6  DTP     1     -14.162  19.061  -3.682  1.00  0.00     0.010 A 
BRANCH  11  14
HETATM   14  O1  DTP     1     -11.699  20.393  -6.047  1.00  0.00    -0.361 OA
HETATM   15  H2  DTP     1     -12.189  20.009  -6.792  1.00  0.00     0.217 HD
ENDBRANCH  11  14
ENDBRANCH   7   8
ENDBRANCH   6   7
BRANCH   6  16
HETATM   16  N1  DTP     1     -12.798  17.407   0.197  1.00  0.00    -0.348 N 
HETATM   17  C2  DTP     1     -11.806  16.480  -0.003  1.00  0.00     0.214 C 
HETATM   18  C1  DTP     1     -10.702  16.520   1.018  1.00  0.00     0.117 C 
HETATM   19  O5  DTP     1     -11.814  15.668  -0.922  1.00  0.00    -0.274 OA
HETATM   20  H1  DTP     1     -12.816  17.949   1.064  1.00  0.00     0.163 HD
ENDBRANCH   6  16
ENDBRANCH   3   6
ENDBRANCH   1   2
BRANCH   1  21
HETATM   21  C17 DTP     1     -15.761  15.397   2.961  1.00  0.00     0.241 C 
HETATM   22  O3  DTP     1     -16.345  14.798   3.866  1.00  0.00    -0.271 OA
HETATM   23  N6  DTP     1     -14.622  16.142   3.150  1.00  0.00    -0.346 N 
HETATM   24  H8  DTP     1     -14.078  16.408   2.337  1.00  0.00     0.163 HD
BRANCH  23  25
HETATM   25  C18 DTP     1     -13.908  16.133   4.428  1.00  0.00     0.180 C 
BRANCH  25  26
HETATM   26  C26 DTP     1     -14.732  16.862   5.509  1.00  0.00     0.238 C 
HETATM   27  N7  DTP     1     -15.425  16.075   6.387  1.00  0.00    -0.368 N 
HETATM   28  H10 DTP     1     -16.083  16.539   7.002  1.00  0.00     0.159 HD
HETATM   29  H9  DTP     1     -15.623  15.092   6.207  1.00  0.00     0.159 HD
HETATM   30  O2  DTP     1     -14.835  18.085   5.565  1.00  0.00    -0.271 OA
ENDBRANCH  25  26
BRANCH  25  31
HETATM   31  C19 DTP     1     -13.588  14.700   4.885  1.00  0.00     0.073 C 
BRANCH  31  32
HETATM   32  C20 DTP     1     -12.566  14.010   4.007  1.00  0.00    -0.056 A 
HETATM   33  C21 DTP     1     -12.961  13.045   3.070  1.00  0.00     0.007 A 
HETATM   34  C22 DTP     1     -12.011  12.389   2.285  1.00  0.00     0.001 A 
HETATM   35  C23 DTP     1     -10.659  12.693   2.425  1.00  0.00     0.000 A 
HETATM   36  C24 DTP     1     -10.254  13.655   3.348  1.00  0.00     0.001 A 
HETATM   37  C25 DTP     1     -11.202  14.312   4.135  1.00  0.00     0.007 A 
ENDBRANCH  31  32
ENDBRANCH  25  31
ENDBRANCH  23  25
ENDBRANCH   1  21
BRANCH   1  38
HETATM   38  C13 DTP     1     -16.857  13.988   1.120  1.00  0.00     0.036 C 
BRANCH  38  39
HETATM   39  C14 DTP     1     -15.944  12.753   1.037  1.00  0.00     0.022 C 
BRANCH  39  40
HETATM   40  C15 DTP     1     -15.897  12.065  -0.325  1.00  0.00     0.122 C 
BRANCH  40  41
HETATM   41  N3  DTP     1     -15.838  13.028  -1.402  1.00  0.00    -0.366 N 
HETATM   42  C16 DTP     1     -14.736  13.612  -1.900  1.00  0.00     0.165 C 
HETATM   43  N4  DTP     1     -13.592  13.466  -1.213  1.00  0.00    -0.273 NA
HETATM   44  N5  DTP     1     -14.725  14.223  -3.029  1.00  0.00    -0.274 NA
HETATM   45  H5  DTP     1     -13.706  13.628  -0.221  1.00  0.00     0.127 HD
HETATM   46  H6  DTP     1     -12.885  14.092  -1.586  1.00  0.00     0.127 HD
HETATM   47  H7  DTP     1     -15.693  14.259  -3.375  1.00  0.00     0.189 HD
HETATM   48  H4  DTP     1     -16.726  13.215  -1.879  1.00  0.00     0.162 HD
ENDBRANCH  40  41
ENDBRANCH  39  40
ENDBRANCH  38  39
ENDBRANCH   1  38
TORSDOF 15
ENDMDL
MODEL 6
REMARK VINA RESULT:      -6.4      2.576      5.528
REMARK  15 active torsions:
REMARK  status: ('A' for Active; 'I' for Inactive)
REMARK       I    between atoms: C2_2  and  N1_3 
REMARK    1  A    between atoms: C3_4  and  N1_3 
REMARK    2  A    between atoms: C11_13  and  C3_4 
REMARK    3  A    between atoms: C3_4  and  C4_5 
REMARK    4  A    between atoms: C4_5  and  C5_6 
REMARK    5  A    between atoms: C8_9  and  O1_10 
REMARK       I    between atoms: C11_13  and  N2_14 
REMARK    6  A    between atoms: C12_15  and  N2_14 
REMARK    7  A    between atoms: C12_15  and  C17_23 
REMARK    8  A    between atoms: C12_15  and  C13_16 
REMARK    9  A    between atoms: C13_16  and  C14_17 
REMARK   10  A    between atoms: C14_17  and  C15_18 
REMARK   11  A    between atoms: C15_18  and  N3_19 
REMARK       I    between atoms: C16_20  and  N3_19 
REMARK       I    between atoms: C16_20  and  N4_21 
REMARK       I    between atoms: C17_23  and  N6_24 
REMARK   12  A    between atoms: C18_25  and  N6_24 
REMARK   13  A    between atoms: C18_25  and  C26_33 
REMARK   14  A    between atoms: C18_25  and  C19_26 
REMARK   15  A    between atoms: C19_26  and  C20_27 
REMARK       I    between atoms: C26_33  and  N7_34 
ROOT
HETATM    1  C12 DTP     1     -14.627  17.420   4.361  1.00  0.00     0.176 C 
ENDROOT
BRANCH   1   2
HETATM    2  N2  DTP     1     -14.629  17.930   3.000  1.00  0.00    -0.346 N 
HETATM    3  C11 DTP     1     -15.533  17.387   2.098  1.00  0.00     0.241 C 
HETATM    4  O4  DTP     1     -16.232  16.420   2.412  1.00  0.00    -0.271 OA
HETATM    5  H3  DTP     1     -14.355  18.894   2.837  1.00  0.00     0.163 HD
BRANCH   3   6
HETATM    6  C3  DTP     1     -15.689  18.125   0.747  1.00  0.00     0.180 C 
BRANCH   6   7
HETATM    7  C4  DTP     1     -15.367  17.173  -0.421  1.00  0.00     0.073 C 
BRANCH   7   8
HETATM    8  C5  DTP     1     -13.973  16.585  -0.426  1.00  0.00    -0.056 A 
HETATM    9  C10 DTP     1     -13.784  15.232  -0.746  1.00  0.00     0.010 A 
HETATM   10  C9  DTP     1     -12.502  14.680  -0.760  1.00  0.00     0.037 A 
HETATM   11  C8  DTP     1     -11.406  15.478  -0.458  1.00  0.00     0.065 A 
HETATM   12  C7  DTP     1     -11.569  16.826  -0.155  1.00  0.00     0.037 A 
HETATM   13  C6  DTP     1     -12.851  17.379  -0.145  1.00  0.00     0.010 A 
BRANCH  11  14
HETATM   14  O1  DTP     1     -10.173  14.897  -0.473  1.00  0.00    -0.361 OA
HETATM   15  H2  DTP     1      -9.939  14.694  -1.393  1.00  0.00     0.217 HD
ENDBRANCH  11  14
ENDBRANCH   7   8
ENDBRANCH   6   7
BRANCH   6  16
HETATM   16  N1  DTP     1     -17.038  18.674   0.571  1.00  0.00    -0.348 N 
HETATM   17  C2  DTP     1     -17.446  19.794   1.251  1.00  0.00     0.214 C 
HETATM   18  C1  DTP     1     -18.863  20.211   0.969  1.00  0.00     0.117 C 
HETATM   19  O5  DTP     1     -16.732  20.404   2.040  1.00  0.00    -0.274 OA
HETATM   20  H1  DTP     1     -17.724  18.121   0.050  1.00  0.00     0.163 HD
ENDBRANCH   6  16
ENDBRANCH   3   6
ENDBRANCH   1   2
BRANCH   1  21
HETATM   21  C17 DTP     1     -13.909  16.058   4.333  1.00  0.00     0.241 C 
HETATM   22  O3  DTP     1     -14.043  15.229   5.236  1.00  0.00    -0.271 OA
HETATM   23  N6  DTP     1     -13.142  15.848   3.213  1.00  0.00    -0.346 N 
HETATM   24  H8  DTP     1     -13.264  16.469   2.420  1.00  0.00     0.163 HD
BRANCH  23  25
HETATM   25  C18 DTP     1     -12.562  14.536   2.919  1.00  0.00     0.180 C 
BRANCH  25  26
HETATM   26  C26 DTP     1     -11.255  14.337   3.713  1.00  0.00     0.238 C 
HETATM   27  N7  DTP     1     -11.330  13.558   4.835  1.00  0.00    -0.368 N 
HETATM   28  H10 DTP     1     -10.518  13.543   5.441  1.00  0.00     0.159 HD
HETATM   29  H9  DTP     1     -12.214  13.334   5.291  1.00  0.00     0.159 HD
HETATM   30  O2  DTP     1     -10.198  14.889   3.417  1.00  0.00    -0.271 OA
ENDBRANCH  25  26
BRANCH  25  31
HETATM   31  C19 DTP     1     -13.550  13.400   3.236  1.00  0.00     0.073 C 
BRANCH  31  32
HETATM   32  C20 DTP     1     -14.295  12.902   2.016  1.00  0.00    -0.056 A 
HETATM   33  C21 DTP     1     -15.587  13.363   1.728  1.00  0.00     0.007 A 
HETATM   34  C22 DTP     1     -16.282  12.878   0.619  1.00  0.00     0.001 A 
HETATM   35  C23 DTP     1     -15.692  11.931  -0.216  1.00  0.00     0.000 A 
HETATM   36  C24 DTP     1     -14.406  11.471   0.056  1.00  0.00     0.001 A 
HETATM   37  C25 DTP     1     -13.709  11.954   1.165  1.00  0.00     0.007 A 
ENDBRANCH  31  32
ENDBRANCH  25  31
ENDBRANCH  23  25
ENDBRANCH   1  21
BRANCH   1  38
HETATM   38  C13 DTP     1     -16.006  17.360   5.026  1.00  0.00     0.036 C 
BRANCH  38  39
HETATM   39  C14 DTP     1     -16.744  18.676   5.326  1.00  0.00     0.022 C 
BRANCH  39  40
HETATM   40  C15 DTP     1     -18.165  18.769   4.774  1.00  0.00     0.122 C 
BRANCH  40  41
HETATM   41  N3  DTP     1     -18.554  17.545   4.109  1.00  0.00    -0.366 N 
HETATM   42  C16 DTP     1     -19.708  17.312   3.462  1.00  0.00     0.165 C 
HETATM   43  N4  DTP     1     -20.695  18.209   3.612  1.00  0.00    -0.273 NA
HETATM   44  N5  DTP     1     -19.864  16.323   2.658  1.00  0.00    -0.274 NA
HETATM   45  H5  DTP     1     -20.837  18.481   4.576  1.00  0.00     0.127 HD
HETATM   46  H6  DTP     1     -21.559  17.837   3.229  1.00  0.00     0.127 HD
HETATM   47  H7  DTP     1     -19.019  15.741   2.711  1.00  0.00     0.189 HD
HETATM   48  H4  DTP     1     -17.835  16.816   4.066  1.00  0.00     0.162 HD
ENDBRANCH  40  41
ENDBRANCH  39  40
ENDBRANCH  38  39
ENDBRANCH   1  38
TORSDOF 15
ENDMDL
MODEL 7
REMARK VINA RESULT:      -6.3      3.863      8.677
REMARK  15 active torsions:
REMARK  status: ('A' for Active; 'I' for Inactive)
REMARK       I    between atoms: C2_2  and  N1_3 
REMARK    1  A    between atoms: C3_4  and  N1_3 
REMARK    2  A    between atoms: C11_13  and  C3_4 
REMARK    3  A    between atoms: C3_4  and  C4_5 
REMARK    4  A    between atoms: C4_5  and  C5_6 
REMARK    5  A    between atoms: C8_9  and  O1_10 
REMARK       I    between atoms: C11_13  and  N2_14 
REMARK    6  A    between atoms: C12_15  and  N2_14 
REMARK    7  A    between atoms: C12_15  and  C17_23 
REMARK    8  A    between atoms: C12_15  and  C13_16 
REMARK    9  A    between atoms: C13_16  and  C14_17 
REMARK   10  A    between atoms: C14_17  and  C15_18 
REMARK   11  A    between atoms: C15_18  and  N3_19 
REMARK       I    between atoms: C16_20  and  N3_19 
REMARK       I    between atoms: C16_20  and  N4_21 
REMARK       I    between atoms: C17_23  and  N6_24 
REMARK   12  A    between atoms: C18_25  and  N6_24 
REMARK   13  A    between atoms: C18_25  and  C26_33 
REMARK   14  A    between atoms: C18_25  and  C19_26 
REMARK   15  A    between atoms: C19_26  and  C20_27 
REMARK       I    between atoms: C26_33  and  N7_34 
ROOT
HETATM    1  C12 DTP     1     -20.472  17.949   4.195  1.00  0.00     0.176 C 
ENDROOT
BRANCH   1   2
HETATM    2  N2  DTP     1     -19.203  17.244   4.124  1.00  0.00    -0.346 N 
HETATM    3  C11 DTP     1     -19.067  16.231   3.188  1.00  0.00     0.241 C 
HETATM    4  O4  DTP     1     -20.033  15.861   2.515  1.00  0.00    -0.271 OA
HETATM    5  H3  DTP     1     -18.353  17.737   4.380  1.00  0.00     0.163 HD
BRANCH   3   6
HETATM    6  C3  DTP     1     -17.637  15.684   2.962  1.00  0.00     0.180 C 
BRANCH   6   7
HETATM    7  C4  DTP     1     -17.670  14.152   2.802  1.00  0.00     0.073 C 
BRANCH   7   8
HETATM    8  C5  DTP     1     -16.672  13.570   1.826  1.00  0.00    -0.056 A 
HETATM    9  C10 DTP     1     -17.114  13.030   0.609  1.00  0.00     0.010 A 
HETATM   10  C9  DTP     1     -16.201  12.496  -0.302  1.00  0.00     0.037 A 
HETATM   11  C8  DTP     1     -14.845  12.505  -0.002  1.00  0.00     0.065 A 
HETATM   12  C7  DTP     1     -14.383  13.051   1.191  1.00  0.00     0.037 A 
HETATM   13  C6  DTP     1     -15.296  13.589   2.100  1.00  0.00     0.010 A 
BRANCH  11  14
HETATM   14  O1  DTP     1     -13.989  11.964  -0.914  1.00  0.00    -0.361 OA
HETATM   15  H2  DTP     1     -13.991  10.999  -0.806  1.00  0.00     0.217 HD
ENDBRANCH  11  14
ENDBRANCH   7   8
ENDBRANCH   6   7
BRANCH   6  16
HETATM   16  N1  DTP     1     -16.997  16.284   1.786  1.00  0.00    -0.348 N 
HETATM   17  C2  DTP     1     -16.407  17.522   1.849  1.00  0.00     0.214 C 
HETATM   18  C1  DTP     1     -15.815  17.995   0.550  1.00  0.00     0.117 C 
HETATM   19  O5  DTP     1     -16.375  18.204   2.867  1.00  0.00    -0.274 OA
HETATM   20  H1  DTP     1     -17.131  15.833   0.877  1.00  0.00     0.163 HD
ENDBRANCH   6  16
ENDBRANCH   3   6
ENDBRANCH   1   2
BRANCH   1  21
HETATM   21  C17 DTP     1     -20.419  19.083   3.154  1.00  0.00     0.241 C 
HETATM   22  O3  DTP     1     -21.439  19.548   2.642  1.00  0.00    -0.271 OA
HETATM   23  N6  DTP     1     -19.152  19.536   2.878  1.00  0.00    -0.346 N 
HETATM   24  H8  DTP     1     -18.396  19.268   3.500  1.00  0.00     0.163 HD
BRANCH  23  25
HETATM   25  C18 DTP     1     -18.930  20.742   2.079  1.00  0.00     0.180 C 
BRANCH  25  26
HETATM   26  C26 DTP     1     -17.784  21.582   2.679  1.00  0.00     0.238 C 
HETATM   27  N7  DTP     1     -16.989  22.257   1.795  1.00  0.00    -0.368 N 
HETATM   28  H10 DTP     1     -16.149  22.687   2.165  1.00  0.00     0.159 HD
HETATM   29  H9  DTP     1     -16.956  22.032   0.801  1.00  0.00     0.159 HD
HETATM   30  O2  DTP     1     -17.530  21.610   3.881  1.00  0.00    -0.271 OA
ENDBRANCH  25  26
BRANCH  25  31
HETATM   31  C19 DTP     1     -18.618  20.396   0.613  1.00  0.00     0.073 C 
BRANCH  31  32
HETATM   32  C20 DTP     1     -19.687  20.868  -0.350  1.00  0.00    -0.056 A 
HETATM   33  C21 DTP     1     -20.741  20.023  -0.720  1.00  0.00     0.007 A 
HETATM   34  C22 DTP     1     -21.707  20.452  -1.633  1.00  0.00     0.001 A 
HETATM   35  C23 DTP     1     -21.631  21.731  -2.180  1.00  0.00     0.000 A 
HETATM   36  C24 DTP     1     -20.591  22.583  -1.815  1.00  0.00     0.001 A 
HETATM   37  C25 DTP     1     -19.624  22.156  -0.903  1.00  0.00     0.007 A 
ENDBRANCH  31  32
ENDBRANCH  25  31
ENDBRANCH  23  25
ENDBRANCH   1  21
BRANCH   1  38
HETATM   38  C13 DTP     1     -20.859  18.435   5.596  1.00  0.00     0.036 C 
BRANCH  38  39
HETATM   39  C14 DTP     1     -20.819  19.943   5.897  1.00  0.00     0.022 C 
BRANCH  39  40
HETATM   40  C15 DTP     1     -19.492  20.467   6.442  1.00  0.00     0.122 C 
BRANCH  40  41
HETATM   41  N3  DTP     1     -18.749  19.424   7.114  1.00  0.00    -0.366 N 
HETATM   42  C16 DTP     1     -17.578  18.892   6.725  1.00  0.00     0.165 C 
HETATM   43  N4  DTP     1     -17.141  19.189   5.492  1.00  0.00    -0.273 NA
HETATM   44  N5  DTP     1     -16.842  18.191   7.509  1.00  0.00    -0.274 NA
HETATM   45  H5  DTP     1     -17.862  19.103   4.787  1.00  0.00     0.127 HD
HETATM   46  H6  DTP     1     -16.353  18.594   5.254  1.00  0.00     0.127 HD
HETATM   47  H7  DTP     1     -17.364  18.046   8.383  1.00  0.00     0.189 HD
HETATM   48  H4  DTP     1     -19.124  19.125   8.020  1.00  0.00     0.162 HD
ENDBRANCH  40  41
ENDBRANCH  39  40
ENDBRANCH  38  39
ENDBRANCH   1  38
TORSDOF 15
ENDMDL
MODEL 8
REMARK VINA RESULT:      -6.3     24.902     28.413
REMARK  15 active torsions:
REMARK  status: ('A' for Active; 'I' for Inactive)
REMARK       I    between atoms: C2_2  and  N1_3 
REMARK    1  A    between atoms: C3_4  and  N1_3 
REMARK    2  A    between atoms: C11_13  and  C3_4 
REMARK    3  A    between atoms: C3_4  and  C4_5 
REMARK    4  A    between atoms: C4_5  and  C5_6 
REMARK    5  A    between atoms: C8_9  and  O1_10 
REMARK       I    between atoms: C11_13  and  N2_14 
REMARK    6  A    between atoms: C12_15  and  N2_14 
REMARK    7  A    between atoms: C12_15  and  C17_23 
REMARK    8  A    between atoms: C12_15  and  C13_16 
REMARK    9  A    between atoms: C13_16  and  C14_17 
REMARK   10  A    between atoms: C14_17  and  C15_18 
REMARK   11  A    between atoms: C15_18  and  N3_19 
REMARK       I    between atoms: C16_20  and  N3_19 
REMARK       I    between atoms: C16_20  and  N4_21 
REMARK       I    between atoms: C17_23  and  N6_24 
REMARK   12  A    between atoms: C18_25  and  N6_24 
REMARK   13  A    between atoms: C18_25  and  C26_33 
REMARK   14  A    between atoms: C18_25  and  C19_26 
REMARK   15  A    between atoms: C19_26  and  C20_27 
REMARK       I    between atoms: C26_33  and  N7_34 
ROOT
HETATM    1  C12 DTP     1     -41.475  15.207  -9.009  1.00  0.00     0.176 C 
ENDROOT
BRANCH   1   2
HETATM    2  N2  DTP     1     -41.406  14.275 -10.122  1.00  0.00    -0.346 N 
HETATM    3  C11 DTP     1     -40.725  14.668 -11.264  1.00  0.00     0.241 C 
HETATM    4  O4  DTP     1     -40.292  15.818 -11.376  1.00  0.00    -0.271 OA
HETATM    5  H3  DTP     1     -41.424  13.279  -9.929  1.00  0.00     0.163 HD
BRANCH   3   6
HETATM    6  C3  DTP     1     -40.448  13.568 -12.317  1.00  0.00     0.180 C 
BRANCH   6   7
HETATM    7  C4  DTP     1     -40.383  14.184 -13.728  1.00  0.00     0.073 C 
BRANCH   7   8
HETATM    8  C5  DTP     1     -39.040  14.102 -14.421  1.00  0.00    -0.056 A 
HETATM    9  C10 DTP     1     -38.830  13.153 -15.433  1.00  0.00     0.010 A 
HETATM   10  C9  DTP     1     -37.598  13.073 -16.084  1.00  0.00     0.037 A 
HETATM   11  C8  DTP     1     -36.575  13.942 -15.728  1.00  0.00     0.065 A 
HETATM   12  C7  DTP     1     -36.766  14.901 -14.740  1.00  0.00     0.037 A 
HETATM   13  C6  DTP     1     -38.001  14.984 -14.091  1.00  0.00     0.010 A 
BRANCH  11  14
HETATM   14  O1  DTP     1     -35.384  13.823 -16.381  1.00  0.00    -0.361 OA
HETATM   15  H2  DTP     1     -35.381  12.981 -16.865  1.00  0.00     0.217 HD
ENDBRANCH  11  14
ENDBRANCH   7   8
ENDBRANCH   6   7
BRANCH   6  16
HETATM   16  N1  DTP     1     -39.202  12.843 -12.043  1.00  0.00    -0.348 N 
HETATM   17  C2  DTP     1     -39.166  11.799 -11.154  1.00  0.00     0.214 C 
HETATM   18  C1  DTP     1     -37.807  11.179 -10.976  1.00  0.00     0.117 C 
HETATM   19  O5  DTP     1     -40.148  11.403 -10.535  1.00  0.00    -0.274 OA
HETATM   20  H1  DTP     1     -38.327  13.227 -12.408  1.00  0.00     0.163 HD
ENDBRANCH   6  16
ENDBRANCH   3   6
ENDBRANCH   1   2
BRANCH   1  21
HETATM   21  C17 DTP     1     -40.433  14.752  -7.971  1.00  0.00     0.241 C 
HETATM   22  O3  DTP     1     -40.220  15.387  -6.936  1.00  0.00    -0.271 OA
HETATM   23  N6  DTP     1     -39.797  13.576  -8.289  1.00  0.00    -0.346 N 
HETATM   24  H8  DTP     1     -40.185  13.001  -9.030  1.00  0.00     0.163 HD
BRANCH  23  25
HETATM   25  C18 DTP     1     -38.936  12.889  -7.326  1.00  0.00     0.180 C 
BRANCH  25  26
HETATM   26  C26 DTP     1     -39.342  11.406  -7.205  1.00  0.00     0.238 C 
HETATM   27  N7  DTP     1     -38.488  10.489  -7.754  1.00  0.00    -0.368 N 
HETATM   28  H10 DTP     1     -38.815   9.532  -7.812  1.00  0.00     0.159 HD
HETATM   29  H9  DTP     1     -37.771  10.742  -8.433  1.00  0.00     0.159 HD
HETATM   30  O2  DTP     1     -40.402  11.038  -6.706  1.00  0.00    -0.271 OA
ENDBRANCH  25  26
BRANCH  25  31
HETATM   31  C19 DTP     1     -37.453  13.000  -7.716  1.00  0.00     0.073 C 
BRANCH  31  32
HETATM   32  C20 DTP     1     -36.566  13.436  -6.569  1.00  0.00    -0.056 A 
HETATM   33  C21 DTP     1     -35.170  13.397  -6.688  1.00  0.00     0.007 A 
HETATM   34  C22 DTP     1     -34.357  13.770  -5.616  1.00  0.00     0.001 A 
HETATM   35  C23 DTP     1     -34.931  14.191  -4.418  1.00  0.00     0.000 A 
HETATM   36  C24 DTP     1     -36.317  14.241  -4.290  1.00  0.00     0.001 A 
HETATM   37  C25 DTP     1     -37.132  13.867  -5.360  1.00  0.00     0.007 A 
ENDBRANCH  31  32
ENDBRANCH  25  31
ENDBRANCH  23  25
ENDBRANCH   1  21
BRANCH   1  38
HETATM   38  C13 DTP     1     -42.876  15.394  -8.415  1.00  0.00     0.036 C 
BRANCH  38  39
HETATM   39  C14 DTP     1     -43.411  14.342  -7.429  1.00  0.00     0.022 C 
BRANCH  39  40
HETATM   40  C15 DTP     1     -44.036  13.104  -8.069  1.00  0.00     0.122 C 
BRANCH  40  41
HETATM   41  N3  DTP     1     -43.165  11.956  -7.958  1.00  0.00    -0.366 N 
HETATM   42  C16 DTP     1     -43.197  10.846  -8.714  1.00  0.00     0.165 C 
HETATM   43  N4  DTP     1     -44.260  10.670  -9.514  1.00  0.00    -0.273 NA
HETATM   44  N5  DTP     1     -42.225  10.007  -8.755  1.00  0.00    -0.274 NA
HETATM   45  H5  DTP     1     -45.139  10.849  -9.045  1.00  0.00     0.127 HD
HETATM   46  H6  DTP     1     -44.256   9.726  -9.889  1.00  0.00     0.127 HD
HETATM   47  H7  DTP     1     -41.534  10.296  -8.051  1.00  0.00     0.189 HD
HETATM   48  H4  DTP     1     -42.398  12.044  -7.284  1.00  0.00     0.162 HD
ENDBRANCH  40  41
ENDBRANCH  39  40
ENDBRANCH  38  39
ENDBRANCH   1  38
TORSDOF 15
ENDMDL
MODEL 9
REMARK VINA RESULT:      -6.3     25.231     28.220
REMARK  15 active torsions:
REMARK  status: ('A' for Active; 'I' for Inactive)
REMARK       I    between atoms: C2_2  and  N1_3 
REMARK    1  A    between atoms: C3_4  and  N1_3 
REMARK    2  A    between atoms: C11_13  and  C3_4 
REMARK    3  A    between atoms: C3_4  and  C4_5 
REMARK    4  A    between atoms: C4_5  and  C5_6 
REMARK    5  A    between atoms: C8_9  and  O1_10 
REMARK       I    between atoms: C11_13  and  N2_14 
REMARK    6  A    between atoms: C12_15  and  N2_14 
REMARK    7  A    between atoms: C12_15  and  C17_23 
REMARK    8  A    between atoms: C12_15  and  C13_16 
REMARK    9  A    between atoms: C13_16  and  C14_17 
REMARK   10  A    between atoms: C14_17  and  C15_18 
REMARK   11  A    between atoms: C15_18  and  N3_19 
REMARK       I    between atoms: C16_20  and  N3_19 
REMARK       I    between atoms: C16_20  and  N4_21 
REMARK       I    between atoms: C17_23  and  N6_24 
REMARK   12  A    between atoms: C18_25  and  N6_24 
REMARK   13  A    between atoms: C18_25  and  C26_33 
REMARK   14  A    between atoms: C18_25  and  C19_26 
REMARK   15  A    between atoms: C19_26  and  C20_27 
REMARK       I    between atoms: C26_33  and  N7_34 
ROOT
HETATM    1  C12 DTP     1     -39.217  12.707 -11.933  1.00  0.00     0.176 C 
ENDROOT
BRANCH   1   2
HETATM    2  N2  DTP     1     -39.277  12.726 -10.481  1.00  0.00    -0.346 N 
HETATM    3  C11 DTP     1     -38.379  11.937  -9.777  1.00  0.00     0.241 C 
HETATM    4  O4  DTP     1     -37.630  11.154 -10.369  1.00  0.00    -0.271 OA
HETATM    5  H3  DTP     1     -39.598  13.569 -10.014  1.00  0.00     0.163 HD
BRANCH   3   6
HETATM    6  C3  DTP     1     -38.296  12.177  -8.251  1.00  0.00     0.180 C 
BRANCH   6   7
HETATM    7  C4  DTP     1     -37.690  13.564  -7.961  1.00  0.00     0.073 C 
BRANCH   7   8
HETATM    8  C5  DTP     1     -36.783  13.646  -6.753  1.00  0.00    -0.056 A 
HETATM    9  C10 DTP     1     -37.312  13.993  -5.501  1.00  0.00     0.010 A 
HETATM   10  C9  DTP     1     -36.486  14.066  -4.378  1.00  0.00     0.037 A 
HETATM   11  C8  DTP     1     -35.131  13.788  -4.502  1.00  0.00     0.065 A 
HETATM   12  C7  DTP     1     -34.589  13.425  -5.730  1.00  0.00     0.037 A 
HETATM   13  C6  DTP     1     -35.416  13.349  -6.853  1.00  0.00     0.010 A 
BRANCH  11  14
HETATM   14  O1  DTP     1     -34.358  13.881  -3.384  1.00  0.00    -0.361 OA
HETATM   15  H2  DTP     1     -33.745  14.627  -3.494  1.00  0.00     0.217 HD
ENDBRANCH  11  14
ENDBRANCH   7   8
ENDBRANCH   6   7
BRANCH   6  16
HETATM   16  N1  DTP     1     -39.608  12.072  -7.603  1.00  0.00    -0.348 N 
HETATM   17  C2  DTP     1     -40.028  10.899  -7.028  1.00  0.00     0.214 C 
HETATM   18  C1  DTP     1     -41.404  10.959  -6.426  1.00  0.00     0.117 C 
HETATM   19  O5  DTP     1     -39.354   9.874  -7.014  1.00  0.00    -0.274 OA
HETATM   20  H1  DTP     1     -40.271  12.843  -7.722  1.00  0.00     0.163 HD
ENDBRANCH   6  16
ENDBRANCH   3   6
ENDBRANCH   1   2
BRANCH   1  21
HETATM   21  C17 DTP     1     -39.119  14.171 -12.401  1.00  0.00     0.241 C 
HETATM   22  O3  DTP     1     -39.278  15.117 -11.627  1.00  0.00    -0.271 OA
HETATM   23  N6  DTP     1     -38.815  14.318 -13.733  1.00  0.00    -0.346 N 
HETATM   24  H8  DTP     1     -38.476  13.509 -14.243  1.00  0.00     0.163 HD
BRANCH  23  25
HETATM   25  C18 DTP     1     -38.477  15.624 -14.299  1.00  0.00     0.180 C 
BRANCH  25  26
HETATM   26  C26 DTP     1     -36.956  15.869 -14.215  1.00  0.00     0.238 C 
HETATM   27  N7  DTP     1     -36.160  15.054 -14.972  1.00  0.00    -0.368 N 
HETATM   28  H10 DTP     1     -35.161  15.107 -14.811  1.00  0.00     0.159 HD
HETATM   29  H9  DTP     1     -36.488  14.171 -15.360  1.00  0.00     0.159 HD
HETATM   30  O2  DTP     1     -36.449  16.701 -13.466  1.00  0.00    -0.271 OA
ENDBRANCH  25  26
BRANCH  25  31
HETATM   31  C19 DTP     1     -38.951  15.746 -15.757  1.00  0.00     0.073 C 
BRANCH  31  32
HETATM   32  C20 DTP     1     -39.933  14.666 -16.155  1.00  0.00    -0.056 A 
HETATM   33  C21 DTP     1     -39.482  13.404 -16.568  1.00  0.00     0.007 A 
HETATM   34  C22 DTP     1     -40.391  12.422 -16.964  1.00  0.00     0.001 A 
HETATM   35  C23 DTP     1     -41.758  12.687 -16.947  1.00  0.00     0.000 A 
HETATM   36  C24 DTP     1     -42.219  13.934 -16.532  1.00  0.00     0.001 A 
HETATM   37  C25 DTP     1     -41.313  14.919 -16.136  1.00  0.00     0.007 A 
ENDBRANCH  31  32
ENDBRANCH  25  31
ENDBRANCH  23  25
ENDBRANCH   1  21
BRANCH   1  38
HETATM   38  C13 DTP     1     -40.351  11.931 -12.612  1.00  0.00     0.036 C 
BRANCH  38  39
HETATM   39  C14 DTP     1     -41.590  12.701 -13.099  1.00  0.00     0.022 C 
BRANCH  39  40
HETATM   40  C15 DTP     1     -42.429  13.352 -12.002  1.00  0.00     0.122 C 
BRANCH  40  41
HETATM   41  N3  DTP     1     -42.957  12.366 -11.086  1.00  0.00    -0.366 N 
HETATM   42  C16 DTP     1     -42.866  12.381  -9.746  1.00  0.00     0.165 C 
HETATM   43  N4  DTP     1     -42.028  13.271  -9.191  1.00  0.00    -0.273 NA
HETATM   44  N5  DTP     1     -43.598  11.642  -8.993  1.00  0.00    -0.274 NA
HETATM   45  H5  DTP     1     -41.124  13.297  -9.645  1.00  0.00     0.127 HD
HETATM   46  H6  DTP     1     -41.912  13.065  -8.204  1.00  0.00     0.127 HD
HETATM   47  H7  DTP     1     -44.136  11.012  -9.601  1.00  0.00     0.189 HD
HETATM   48  H4  DTP     1     -43.528  11.628 -11.511  1.00  0.00     0.162 HD
ENDBRANCH  40  41
ENDBRANCH  39  40
ENDBRANCH  38  39
ENDBRANCH   1  38
TORSDOF 15
ENDMDL
MODEL 10
REMARK VINA RESULT:      -6.2      1.747      2.132
REMARK  15 active torsions:
REMARK  status: ('A' for Active; 'I' for Inactive)
REMARK       I    between atoms: C2_2  and  N1_3 
REMARK    1  A    between atoms: C3_4  and  N1_3 
REMARK    2  A    between atoms: C11_13  and  C3_4 
REMARK    3  A    between atoms: C3_4  and  C4_5 
REMARK    4  A    between atoms: C4_5  and  C5_6 
REMARK    5  A    between atoms: C8_9  and  O1_10 
REMARK       I    between atoms: C11_13  and  N2_14 
REMARK    6  A    between atoms: C12_15  and  N2_14 
REMARK    7  A    between atoms: C12_15  and  C17_23 
REMARK    8  A    between atoms: C12_15  and  C13_16 
REMARK    9  A    between atoms: C13_16  and  C14_17 
REMARK   10  A    between atoms: C14_17  and  C15_18 
REMARK   11  A    between atoms: C15_18  and  N3_19 
REMARK       I    between atoms: C16_20  and  N3_19 
REMARK       I    between atoms: C16_20  and  N4_21 
REMARK       I    between atoms: C17_23  and  N6_24 
REMARK   12  A    between atoms: C18_25  and  N6_24 
REMARK   13  A    between atoms: C18_25  and  C26_33 
REMARK   14  A    between atoms: C18_25  and  C19_26 
REMARK   15  A    between atoms: C19_26  and  C20_27 
REMARK       I    between atoms: C26_33  and  N7_34 
ROOT
HETATM    1  C12 DTP     1     -15.186  17.568  -0.587  1.00  0.00     0.176 C 
ENDROOT
BRANCH   1   2
HETATM    2  N2  DTP     1     -14.881  17.862   0.803  1.00  0.00    -0.346 N 
HETATM    3  C11 DTP     1     -15.889  17.708   1.742  1.00  0.00     0.241 C 
HETATM    4  O4  DTP     1     -17.042  17.443   1.391  1.00  0.00    -0.271 OA
HETATM    5  H3  DTP     1     -13.931  17.726   1.136  1.00  0.00     0.163 HD
BRANCH   3   6
HETATM    6  C3  DTP     1     -15.466  17.774   3.229  1.00  0.00     0.180 C 
BRANCH   6   7
HETATM    7  C4  DTP     1     -13.939  17.615   3.358  1.00  0.00     0.073 C 
BRANCH   7   8
HETATM    8  C5  DTP     1     -13.466  16.414   4.145  1.00  0.00    -0.056 A 
HETATM    9  C10 DTP     1     -12.564  15.507   3.568  1.00  0.00     0.010 A 
HETATM   10  C9  DTP     1     -12.115  14.399   4.288  1.00  0.00     0.037 A 
HETATM   11  C8  DTP     1     -12.563  14.195   5.587  1.00  0.00     0.065 A 
HETATM   12  C7  DTP     1     -13.443  15.090   6.185  1.00  0.00     0.037 A 
HETATM   13  C6  DTP     1     -13.889  16.202   5.466  1.00  0.00     0.010 A 
BRANCH  11  14
HETATM   14  O1  DTP     1     -12.108  13.095   6.250  1.00  0.00    -0.361 OA
HETATM   15  H2  DTP     1     -11.174  13.235   6.477  1.00  0.00     0.217 HD
ENDBRANCH  11  14
ENDBRANCH   7   8
ENDBRANCH   6   7
BRANCH   6  16
HETATM   16  N1  DTP     1     -15.882  19.029   3.866  1.00  0.00    -0.348 N 
HETATM   17  C2  DTP     1     -17.094  19.138   4.501  1.00  0.00     0.214 C 
HETATM   18  C1  DTP     1     -17.371  20.497   5.083  1.00  0.00     0.117 C 
HETATM   19  O5  DTP     1     -17.902  18.219   4.580  1.00  0.00    -0.274 OA
HETATM   20  H1  DTP     1     -15.322  19.868   3.696  1.00  0.00     0.163 HD
ENDBRANCH   6  16
ENDBRANCH   3   6
ENDBRANCH   1   2
BRANCH   1  21
HETATM   21  C17 DTP     1     -14.570  16.194  -0.906  1.00  0.00     0.241 C 
HETATM   22  O3  DTP     1     -14.803  15.602  -1.962  1.00  0.00    -0.271 OA
HETATM   23  N6  DTP     1     -13.729  15.713   0.068  1.00  0.00    -0.346 N 
HETATM   24  H8  DTP     1     -13.411  16.351   0.790  1.00  0.00     0.163 HD
BRANCH  23  25
HETATM   25  C18 DTP     1     -12.897  14.530  -0.157  1.00  0.00     0.180 C 
BRANCH  25  26
HETATM   26  C26 DTP     1     -11.408  14.871   0.058  1.00  0.00     0.238 C 
HETATM   27  N7  DTP     1     -10.957  16.035  -0.502  1.00  0.00    -0.368 N 
HETATM   28  H10 DTP     1      -9.956  16.192  -0.495  1.00  0.00     0.159 HD
HETATM   29  H9  DTP     1     -11.466  16.524  -1.237  1.00  0.00     0.159 HD
HETATM   30  O2  DTP     1     -10.625  14.125   0.642  1.00  0.00    -0.271 OA
ENDBRANCH  25  26
BRANCH  25  31
HETATM   31  C19 DTP     1     -13.310  13.368   0.763  1.00  0.00     0.073 C 
BRANCH  31  32
HETATM   32  C20 DTP     1     -14.804  13.296   0.994  1.00  0.00    -0.056 A 
HETATM   33  C21 DTP     1     -15.647  12.699   0.046  1.00  0.00     0.007 A 
HETATM   34  C22 DTP     1     -17.028  12.662   0.249  1.00  0.00     0.001 A 
HETATM   35  C23 DTP     1     -17.579  13.217   1.403  1.00  0.00     0.000 A 
HETATM   36  C24 DTP     1     -16.751  13.807   2.355  1.00  0.00     0.001 A 
HETATM   37  C25 DTP     1     -15.370  13.845   2.154  1.00  0.00     0.007 A 
ENDBRANCH  31  32
ENDBRANCH  25  31
ENDBRANCH  23  25
ENDBRANCH   1  21
BRANCH   1  38
HETATM   38  C13 DTP     1     -14.769  18.660  -1.580  1.00  0.00     0.036 C 
BRANCH  38  39
HETATM   39  C14 DTP     1     -13.351  18.624  -2.173  1.00  0.00     0.022 C 
BRANCH  39  40
HETATM   40  C15 DTP     1     -12.959  19.843  -3.004  1.00  0.00     0.122 C 
BRANCH  40  41
HETATM   41  N3  DTP     1     -13.790  19.970  -4.180  1.00  0.00    -0.366 N 
HETATM   42  C16 DTP     1     -13.535  19.477  -5.403  1.00  0.00     0.165 C 
HETATM   43  N4  DTP     1     -12.303  19.000  -5.636  1.00  0.00    -0.273 NA
HETATM   44  N5  DTP     1     -14.438  19.376  -6.311  1.00  0.00    -0.274 NA
HETATM   45  H5  DTP     1     -11.573  19.617  -5.303  1.00  0.00     0.127 HD
HETATM   46  H6  DTP     1     -12.182  18.827  -6.629  1.00  0.00     0.127 HD
HETATM   47  H7  DTP     1     -15.291  19.826  -5.956  1.00  0.00     0.189 HD
HETATM   48  H4  DTP     1     -14.702  20.415  -4.032  1.00  0.00     0.162 HD
ENDBRANCH  40  41
ENDBRANCH  39  40
ENDBRANCH  38  39
ENDBRANCH   1  38
TORSDOF 15
ENDMDL
